# generated using pymatgen
data_B4C
_symmetry_space_group_name_H-M   'P 1'
_cell_length_a   5.64590090
_cell_length_b   5.64590090
_cell_length_c   12.09461235
_cell_angle_alpha   90.00000000
_cell_angle_beta   90.00000000
_cell_angle_gamma   120.00000000
_symmetry_Int_Tables_number   1
_chemical_formula_structural   B4C
_chemical_formula_sum   'B36 C9'
_cell_volume   333.878986381
_cell_formula_units_Z   9
loop_
 _symmetry_equiv_pos_site_id
 _symmetry_equiv_pos_as_xyz
  1  'x, y, z'
loop_
 _atom_site_type_symbol
 _atom_site_label
 _atom_site_symmetry_multiplicity
 _atom_site_fract_x
 _atom_site_fract_y
 _atom_site_fract_z
 _atom_site_occupancy
  B  B1  1  0.001426  0.500713  0.307184  1
  B  B2  1  0.499287  0.998574  0.307184  1
  B  B3  1  0.499287  0.500713  0.307184  1
  B  B4  1  0.665241  0.832620  0.026149  1
  B  B5  1  0.167380  0.334759  0.026149  1
  B  B6  1  0.167380  0.832620  0.026149  1
  B  B7  1  0.117731  0.558866  0.552696  1
  B  B8  1  0.441134  0.882269  0.552696  1
  B  B9  1  0.441134  0.558866  0.552696  1
  B  B10  1  0.548935  0.774468  0.780638  1
  B  B11  1  0.225532  0.451065  0.780638  1
  B  B12  1  0.225532  0.774468  0.780638  1
  B  B13  1  0.668093  0.834046  0.640518  1
  B  B14  1  0.165954  0.331907  0.640518  1
  B  B15  1  0.165954  0.834046  0.640518  1
  B  B16  1  0.331907  0.165954  0.359482  1
  B  B17  1  0.834046  0.668093  0.359482  1
  B  B18  1  0.834046  0.165954  0.359482  1
  B  B19  1  0.784398  0.892199  0.886029  1
  B  B20  1  0.107801  0.215602  0.886029  1
  B  B21  1  0.107801  0.892199  0.886029  1
  B  B22  1  0.215602  0.107801  0.113971  1
  B  B23  1  0.892199  0.784398  0.113971  1
  B  B24  1  0.892199  0.107801  0.113971  1
  B  B25  1  0.334759  0.167380  0.973851  1
  B  B26  1  0.832620  0.665241  0.973851  1
  B  B27  1  0.832620  0.167380  0.973851  1
  B  B28  1  0.998574  0.499287  0.692816  1
  B  B29  1  0.500713  0.001426  0.692816  1
  B  B30  1  0.500713  0.499287  0.692816  1
  B  B31  1  0.451065  0.225532  0.219362  1
  B  B32  1  0.774468  0.548935  0.219362  1
  B  B33  1  0.774468  0.225532  0.219362  1
  B  B34  1  0.882269  0.441134  0.447304  1
  B  B35  1  0.558866  0.117731  0.447304  1
  B  B36  1  0.558866  0.441134  0.447304  1
  C  C37  1  0.333333  0.666667  0.276856  1
  C  C38  1  0.333333  0.666667  0.056477  1
  C  C39  1  0.333333  0.666667  0.166667  1
  C  C40  1  0.000000  0.000000  0.610189  1
  C  C41  1  0.000000  0.000000  0.389811  1
  C  C42  1  1.000000  1.000000  0.500000  1
  C  C43  1  0.666667  0.333333  0.943523  1
  C  C44  1  0.666667  0.333333  0.723144  1
  C  C45  1  0.666667  0.333333  0.833333  1
